data_pbso4

_cell_length_a 8.4757(0.0001)
_cell_length_b 5.3951(0.0001)
_cell_length_c 6.9562(0.0001)
_cell_angle_alpha 90
_cell_angle_beta 90
_cell_angle_gamma 90
_space_group_name_H-M_alt "P n m a"
_space_group_IT_coordinate_system_code abc

loop_
_atom_site_label
_atom_site_type_symbol
_atom_site_fract_x
_atom_site_fract_y
_atom_site_fract_z
_atom_site_occupancy
_atom_site_adp_type
_atom_site_B_iso_or_equiv
_atom_site_multiplicity
_atom_site_Wyckoff_symbol
Pb Pb 0.1874(0.0001) 0.25 0.167(0.0002) 1 Biso 1.0876(0.0298) 4 c 
S S 0.0646(0.0004) 0.25 0.6821(0.0005) 1 Biso 0.1696(0.0581) 4 c 
O1 O 0.9078(0.0003) 0.25 0.5955(0.0003) 1 Biso 1.7063(0.045) 4 c 
O2 O 0.1934(0.0003) 0.25 0.5432(0.0003) 1 Biso 1.2006(0.0427) 4 c 
O3 O 0.0809(0.0002) 0.0273(0.0002) 0.8094(0.0002) 1 Biso 0.9128(0.0282) 8 d