data_pbso4

_space_group_name_H-M_alt "P n m a"
_space_group_IT_coordinate_system_code abc

_cell_length_a 8.477930()
_cell_length_b 5.396820
_cell_length_c 6.958100
_cell_angle_alpha 90.000000
_cell_angle_beta 90.000000
_cell_angle_gamma 90.000000

loop_
_atom_site_label
_atom_site_type_symbol
_atom_site_fract_x
_atom_site_fract_y
_atom_site_fract_z
_atom_site_occupancy
_atom_site_adp_type
_atom_site_B_iso_or_equiv
_atom_site_multiplicity
_atom_site_Wyckoff_symbol
  Pb   Pb   0.18724   0.25000   0.16615   1.0   Biso   0.50000   4   c
  S    S    0.06434   0.25000   0.68261   1.0   Biso   0.50000   4   c
  O1   O    0.90790   0.25000   0.59598   1.0   Biso   0.50000   4   c
  O2   O    0.19260   0.25000   0.54171   1.0   Biso   0.50000   4   c
  O3   O    0.08043   0.02893   0.80734   1.0   Biso   0.50000   8   d
