data_pbso4

_space_group_name_H-M_alt "P n m a"
_space_group_IT_coordinate_system_code abc

_cell_length_a 8.47()
_cell_length_b 5.39()
_cell_length_c 6.95()
_cell_angle_alpha 90.000000
_cell_angle_beta  90.000000
_cell_angle_gamma 90.000000

loop_
_atom_site_label
_atom_site_type_symbol
_atom_site_fract_x
_atom_site_fract_y
_atom_site_fract_z
_atom_site_occupancy
_atom_site_adp_type
_atom_site_B_iso_or_equiv
_atom_site_multiplicity
_atom_site_Wyckoff_symbol
  Pb   Pb   0.187240   0.250000     0.166150   1.0   Biso   0.0   4   c
  S    S    0.064340   0.250000     0.682610   1.0   Biso   0.0   4   c
  O1   O    0.907900   0.250000     0.595980   1.0   Biso   0.0   4   c
  O2   O    0.192600   0.250000     0.541710   1.0   Biso   0.0   4   c
  O3   O    0.080430   0.028930     0.807340   1.0   Biso   0.0   8   d
