data_co2sio4

_space_group_name_H-M_alt 'P n m a'

_cell_length_a     10.30()
_cell_length_b      6.00()
_cell_length_c      4.78()
_cell_angle_alpha  90.0
_cell_angle_beta   90.0
_cell_angle_gamma  90.0

loop_
_atom_site_label
_atom_site_type_symbol
_atom_site_fract_x
_atom_site_fract_y
_atom_site_fract_z
_atom_site_occupancy
_atom_site_adp_type
_atom_site_B_iso_or_equiv
Co1 Co  0.0    0.0     0.0     1.0 Biso  0.3
Co2 Co  0.279  0.25    0.985   1.0 Biso  0.3
Si  Si  0.094  0.25    0.429   1.0 Biso  0.34
O1  O   0.091  0.25    0.771   1.0 Biso  0.63
O2  O   0.448  0.25    0.217   1.0 Biso  0.59
O3  O   0.164  0.0320  0.280   1.0 Biso  0.83

data_o2

_space_group_name_H-M_alt "F d -3 m"
_space_group_IT_coordinate_system_code 2

_cell_length_a 5
_cell_length_b 5
_cell_length_c 5
_cell_angle_alpha 90
_cell_angle_beta 90
_cell_angle_gamma 90

loop_
_atom_site_label
_atom_site_type_symbol
_atom_site_fract_x
_atom_site_fract_y
_atom_site_fract_z
_atom_site_occupancy
_atom_site_adp_type
_atom_site_B_iso_or_equiv
O O 0 0 0 1 Biso 0

data_o2

_space_group_name_H-M_alt "P b n m"

_cell_length_a 10
_cell_length_b 6
_cell_length_c 4
_cell_angle_alpha 90
_cell_angle_beta 90
_cell_angle_gamma 90

loop_
_atom_site_label
_atom_site_type_symbol
_atom_site_fract_x
_atom_site_fract_y
_atom_site_fract_z
_atom_site_occupancy
_atom_site_adp_type
_atom_site_B_iso_or_equiv
O O 0.1 0.2 0.3 1 Biso 0
